$pyNastran: version=msc
$pyNastran: punch=True
$pyNastran: encoding=utf-8
$pyNastran: nnodes=480
$pyNastran: nelements=288
$NODES
GRID           5        2343.146-100.598-131.102
GRID          10        2343.146-131.102-100.598
GRID          25        2343.146-152.671-63.2386
GRID          40        2343.146-91.7696-137.426
GRID          42        2343.146-108.992-124.211
GRID          44        2336.635-100.598-131.102
GRID          46        2336.635-108.992-124.211
GRID          48        2336.635-91.7696-137.426
GRID          50         2332.01-100.598-131.102
GRID          52         2332.01-108.992-124.211
GRID          54         2332.01-91.7696-137.426
GRID          60        2343.146-124.211-108.992
GRID          62        2336.635-131.102-100.598
GRID          64        2336.635-124.211-108.992
GRID          65        2343.146-137.426-91.7696
GRID          66        2336.635-137.426-91.7696
GRID          70         2332.01-131.102-100.598
GRID          72         2332.01-137.426-91.7696
GRID          74         2332.01-124.211-108.992
GRID          78        2343.146-148.188-73.1301
$ ... 460 like lines cut
$ELEMENTS
CQUAD4    610152  610018  610168  610000     983     984          -.0625
CQUAD4    610153  610018  610171  610017     995     996          -.0625
CQUAD4    610154  610018  610170  610016    1007    1008          -.0625
CQUAD4    610155  610018  610174  610053     945     946          -.0625
CQUAD4    610156  610018  610173  610031     957     958          -.0625
CQUAD4    610157  610018  610172  610030     971     972          -.0625
CQUAD4    610158  610018  610177  610066     913     912          -.0625
CQUAD4    610159  610018  610176  610055     927     928          -.0625
CQUAD4    610160  610018  610175  610054     935     936          -.0625
CQUAD4    610161  610018  610066  610177     899     900          -.0625
CQUAD4    610162  610018  610076  610179     887     888          -.0625
CQUAD4    610163  610018  610075  610178     875     876          -.0625
CQUAD4    610164  610018  610183  610119     837     838          -.0625
CQUAD4    610165  610018  610182  610098     851     852          -.0625
CQUAD4    610166  610018  610181  610097     861     862          -.0625
CQUAD4    610167  610018  610186  610138     805     803          -.0625
CQUAD4    610168  610018  610185  610121     815     816          -.0625
CQUAD4    610169  610018  610184  610120     831     832          -.0625
CQUAD4    610170  610018  610189  610132      40      48          -.0625
CQUAD4    610171  610018  610188  610140      60      64          -.0625
$ ... 268 like lines cut
$PROPERTIES
$ Femap Constraint Set 8000000 : NASTRAN MPC 8000000
$
$ Femap Property 610018 : L_Ring_Web
PSHELL    610018  610001    .375  610001          610001         7.986-6
$MATERIALS
$ Femap Material 610001 : AL2219
MAT1      610001  1.05+74000000.     .332.6656-4.0000122     70.
$COORDS
CORD2C         1              0.      0.      0.      0.      0.      1.
              1.      0.      1.
CORD2S         2              0.      0.      0.      0.      0.      1.
              1.      0.      1.
$ Femap Coordinate System 4 : shelf4_hc_side
CORD2R         4  647000-4.26852-5.74-13-29.6999-3006.19-5.74-13-29.6999
        -4.268524.457-112972.224
$ Femap Coordinate System 5 :   Upper S Horizontal Strut Cylindrical
CORD2C         5  600100   530.7-.483411-.506275 3393.41-.483411-.506275
           530.72862.227-.506275
$ Femap Coordinate System 6 :   Upper S Horizontal Strut Cylindrical
CORD2C         6  600100   530.7.4834106.5062748 3393.41.4834106.5062748
           530.72863.193.5062748
$ Femap Coordinate System 40000 : Cylindrical Coordinate System
CORD2C     40000              0.      0.      0.      1.      0.      0.
              0.      1.      0.
$ Femap Coordinate System 40001 : Rectangular Coordinate System
CORD2R     40001         3010.57 -11.069-14.76092230.271657.44512815.097
        102.8208-190.465-774.158
$ Femap Coordinate System 40002 : Rectangular Coordinate System
CORD2R     40002              0.-10.8345-13.7682      0.-9.86129-13.9981
              1.-10.8345-13.7682
$ Femap Coordinate System 40003 : Rectangular Coordinate System
CORD2R     40003         2997.34-16.0238-35.7348101.8866-194.395-790.794
        3773.182-681.703-2853.63
$ Femap Coordinate System 40004 : Rectangular Coordinate System
CORD2R     40004         3024.95-28.5524-88.7693385.3756-368.912-1529.54
        4505.377-635.402-2657.64
$ Femap Coordinate System 40005 : Rectangular Coordinate System
CORD2R     40005         3081.74-43.5851-152.404918.9535-549.619-2294.49
        5282.786-540.817-2257.26
$ Femap Coordinate System 40006 : Rectangular Coordinate System
CORD2R     40006         4551.65-42.5368-151.911 4551.654363.921-1303.23
        9106.033-42.5368-151.911
$ Femap Coordinate System 40007 : Rectangular Coordinate System
CORD2R     40007         4575.74-14.0001   -152. 4575.744551.622-492.288
        9154.025 -13.983 -151.77
$ Femap Coordinate System 40008 : Rectangular Coordinate System
CORD2R     40008              0.      0.      0.      0..9496658-.313265
              1.      0.      0.
$ Femap Coordinate System 40009 : Rectangular Coordinate System
CORD2R     40009         2341.04      0.      0. 2341.04733.35632223.209
              0.      0.      0.
$ Femap Coordinate System 40010 : Rectangular Coordinate System
CORD2R     40010         2333.32-12.1961-36.972535.12585-139.137-421.794
        2738.538-732.139-2219.49
$ Femap Coordinate System 40011 : Rectangular Coordinate System
CORD2R     40011          2350.7-24.1384 -73.176 259.617-361.405 -1095.6
        3427.315-679.194-2059.01
$ Femap Coordinate System 40012 : Rectangular Coordinate System
CORD2R     40012         2409.05-49.2344-149.255668.5465-573.319-1738.03
        4082.032-594.475-1802.15
$ Femap Coordinate System 40013 : Rectangular Coordinate System
CORD2R     40013          4557.7-49.7089-149.717  4557.74278.401-1586.72
        9118.129-49.7089-149.717
$ Femap Coordinate System 40014 : Rectangular Coordinate System
CORD2R     40014         4585.53-63.3411-139.971-2.57302-63.3411-139.971
         4585.53-3795.652528.468
$ Femap Coordinate System 40015 : Rectangular Coordinate System
CORD2R     40015          2335.4-2.34913 -7.1214  2335.4-2220.21724.4803
        545.7326467.6771 1417.77
$ Femap Coordinate System 40016 : Rectangular Coordinate System
CORD2R     40016         2354.09-12.3408-37.4114 2354.09-2248.25700.1464
        124.3542-249.176 -755.38
$ Femap Coordinate System 40017 : Rectangular Coordinate System
CORD2R     40017         2389.18-33.6573-102.033 2389.19-2304.87647.1803
        446.7209-470.738  -1427.
$ Femap Coordinate System 40018 : Rectangular Coordinate System
CORD2R     40018         2427.33-50.6682-153.601 2427.33-2360.93608.4824
        1474.269-751.833-2279.19
$ Femap Coordinate System 40019 : Rectangular Coordinate System
CORD2R     40019         4513.67-51.6105-155.935 4513.68-4370.79 1165.01
        7020.096 -1150.5-3749.05
$ Femap Coordinate System 40020 : Rectangular Coordinate System
CORD2R     40020         4529.48-51.9086 -156.91 4529.48-4386.24 1168.64
$ ... 40 like lines cut
$ Femap Coordinate System 40034 : Cylindrical Coordinate System
CORD2C     40034         2350.72      0.      0. 2351.72      0. 2350.72
        .0002127      0..9999999
$ Femap Coordinate System 40035 : Cylindrical Coordinate System
CORD2C     40035         2357.38-7.38537-54.48581786.866299.91912212.746
        69.41641-84.0114-619.831
$ Femap Coordinate System 40036 : Cylindrical Coordinate System
CORD2C     40036         2357.38-26.5103-48.17621787.4571076.8241956.345
        69.26899-301.331-547.462
$ Femap Coordinate System 40037 : Cylindrical Coordinate System
CORD2C     40037         2371.36-19.0519-91.83671325.558413.56021994.138
        240.9977-231.422-1115.85
$ Femap Coordinate System 40038 : Cylindrical Coordinate System
CORD2C     40038         2371.36-39.3755-85.12661325.558854.80841848.491
        240.9978-478.341-1034.34
$ Femap Coordinate System 40039 : Cylindrical Coordinate System
CORD2C     40039         3018.76-10.8345-13.7682 3018.761856.0432358.569
         -.05084-10.8344-13.7683
$ Femap Coordinate System 40040 : Cylindrical Coordinate System
CORD2C     40040         3024.79-6.71763-54.67992292.101352.66372858.463
        89.59003 -83.586-783.434
$ Femap Coordinate System 40041 : Cylindrical Coordinate System
CORD2C     40041         3024.79-19.7464-51.43052292.099 1033.752688.223
         89.5938-269.924-740.215
$ Femap Coordinate System 40042 : Cylindrical Coordinate System
CORD2C     40042         3038.83-38.5989-85.67041695.3121086.4252398.801
        311.6005 -570.17-1319.76
$ Femap Coordinate System 40043 : Cylindrical Coordinate System
CORD2C     40043         3038.83 -17.533 -92.314 1695.31496.41532586.142
        311.6015-246.335 -1416.4
$ Femap Coordinate System 80000 : Cylindrical Coordinate System
CORD2C     80000              0.      0.      0.      1.      0.      0.
              0.      0.      1.
$ Femap Coordinate System 80001 : Rectangular Coordinate System
CORD2R     80001        2928.365169.070435.975052928.1823036.206 656.246
        2928.365-451.201 2903.11
$ Femap Coordinate System 80002 : Rectangular Coordinate System
CORD2R     80002        2928.365169.0704-35.97512928.1823036.206-656.246
        2928.365  -451.2-2903.11
$ Femap Coordinate System 500000 : Cylindrical Coordinate System
CORD2C    500000        -329.5944.263-141.563-13      0.4.263-141.563-13
        -329.594 329.594 4.229-6
$ Femap Coordinate System 500001 : Rectangular Coordinate System
CORD2R    500001         2740.68 31.3293-164.182 2740.68  545.34-2861.41
        5486.452 31.3293-164.182
$ Femap Coordinate System 500002 : Rectangular Coordinate System
CORD2R    500002          3737.5 31.3059-164.059  3737.5731.6555-3839.15
         7478.73 31.3059-164.059
$ Femap Coordinate System 500003 : Rectangular Coordinate System
CORD2R    500003         3877.28 31.3059-164.059 3877.28 757.795-3976.33
        7758.156 31.3059-164.059
$ Femap Coordinate System 500004 : Rectangular Coordinate System
CORD2R    500004        -7.231-6-1.79592-13.9072.9999928-1.79592-13.9072
        -7.231-6 -.89068-14.3321
$ Femap Coordinate System 500005 : Rectangular Coordinate System
CORD2R    500005              0..0799998-4.57937      1..0799998-4.57937
              0.    1.08-4.57937
$ Femap Coordinate System 500006 : Rectangular Coordinate System
CORD2R    500006        7.2312-6-1.64185 13.57081.000007-1.64185 13.5708
        7.2312-6 -.7288113.97867
$ Femap Coordinate System 500007 : Rectangular Coordinate System
CORD2R    500007         37.8245-7.55456-12.0953 37.8245-7.47315-11.0986
         37.8245-6.55788-12.1767
$ Femap Coordinate System 500008 : Rectangular Coordinate System
CORD2R    500008         37.8245-7.14346-3.02192 37.8245-7.11589 -2.0223
         37.8245-6.14384-3.04949
$ Femap Coordinate System 500009 : Rectangular Coordinate System
CORD2R    500009         37.8245-7.14197 2.78621 37.8245-7.181263.785438
         37.8245-6.14274  2.8255
$ Femap Coordinate System 500010 : Rectangular Coordinate System
CORD2R    500010         37.8245-7.54692 11.8528 37.8245-7.6666112.84561
         37.8245-6.5541111.97249
$ Femap Coordinate System 500011 : Rectangular Coordinate System
CORD2R    500011         37.8245-7.55456-12.0953 37.8245-7.47315-11.0986
         37.8245-6.55788-12.1767
$ Femap Coordinate System 500012 : Rectangular Coordinate System
CORD2R    500012         37.8245-7.14346-3.02192 37.8245-7.11589 -2.0223
         37.8245-6.14384-3.04949
$ Femap Coordinate System 500013 : Rectangular Coordinate System
CORD2R    500013         37.8245-7.14197 2.78621 37.8245-7.181263.785438
         37.8245-6.14274  2.8255
$ Femap Coordinate System 500014 : Rectangular Coordinate System
CORD2R    500014         37.8245-7.54692 11.8528 37.8245-7.6666112.84561
         37.8245-6.5541111.97249
$ Femap Coordinate System 500015 : Rectangular Coordinate System
CORD2R    500015         37.8245-7.55456-12.0953 37.8245-7.47315-11.0986
         37.8245-6.55788-12.1767
$ Femap Coordinate System 500016 : Rectangular Coordinate System
CORD2R    500016         37.8245-7.14346-3.02192 37.8245-7.11589 -2.0223
         37.8245-6.14384-3.04949
$ Femap Coordinate System 500017 : Rectangular Coordinate System
CORD2R    500017         37.8245-7.14197 2.78621 37.8245-7.181263.785438
         37.8245-6.14274  2.8255
$ Femap Coordinate System 500018 : Rectangular Coordinate System
CORD2R    500018         37.8245-7.54692 11.8528 37.8245-7.6666112.84561
         37.8245-6.5541111.97249
$ Femap Coordinate System 500019 : Rectangular Coordinate System
CORD2R    500019         547.226 172.534 12.5926 490.517386.4157-516.956
         547.226704.6866227.5262
$ Femap Coordinate System 500020 : Rectangular Coordinate System
CORD2R    500020         547.226 173.874 4.49992 519.777 174.504-569.046
$ ... 271 like lines cut
$ Femap Coordinate System 600100 : SLS Master Coordinate System
CORD2R    600100         2332.01      0.      0. 2332.01      0. 2332.01
         4664.02      0.      0.
$ Femap Coordinate System 600500 : Cylindrical Coordinate System
CORD2C    600500  600100      0.      0.      0. 2332.01      0.      0.
              0. 2332.01      0.
$ Femap Coordinate System 610000 : SLS Cylindrical Coordinate System
CORD2C    610000  600100      0.      0.      0. 2332.01      0.      0.
              0. 2332.01      0.
$ Femap Coordinate System 617000 : Shelf 1
CORD2R    617000  610000 150.517-104.42831.69494 2373.27169.208331.69494
         150.516-104.4282400.187
$ Femap Coordinate System 617153 : Rectangular Coordinate System
CORD2R    617153  617000 -1.7593 -8.1508   -6.75-1675.67-1682.08   -6.75
         -1.7593 -8.1508-2374.03
$ Femap Coordinate System 617154 : Rectangular Coordinate System
CORD2R    617154  617000 -1.7593 -8.1508    6.75-1675.67-1682.08    6.75
         -1.7593 -8.1508-2360.53
$ Femap Coordinate System 617155 : Rectangular Coordinate System
CORD2R    617155  617000 -1.7593  8.1508    6.75-1674.941681.342    6.75
         -1.7593  8.15082372.992
$ Femap Coordinate System 617156 : Rectangular Coordinate System
CORD2R    617156  617000 -1.7593  8.1508   -6.75-1674.941681.342   -6.75
         -1.7593  8.15082359.492
$ Femap Coordinate System 617157 : Rectangular Coordinate System
CORD2R    617157  617000 -1.7593      0. 15.1507-1675.33-9.09-13 1688.72
         -1.7593-2366.79 15.1507
$ Femap Coordinate System 617158 : Rectangular Coordinate System
CORD2R    617158  617000 -1.75931.288-14-15.1507-1675.33-4.38-12-1688.72
         -1.75932366.785-15.1507
$ Femap Coordinate System 618000 : Shelf 2
CORD2R    618000  610000151.2733-84.847231.694942373.366-171.19331.69494
        151.2733-84.84722400.236
$ Femap Coordinate System 618252 : Rectangular Coordinate System
CORD2R    618252  618000 -1.7593-7.99-15 21.6507 -1675.4 1.08-12 1695.29
         -1.7593-2366.88 21.6507
$ Femap Coordinate System 618253 : Rectangular Coordinate System
CORD2R    618253  618000 -1.75937.994-15-21.6507 -1675.4-8.81-13-1695.29
         -1.75932366.884-21.6507
$ Femap Coordinate System 618254 : Rectangular Coordinate System
CORD2R    618254  618000 -1.7593 -6.6507    13.5-1675.66-1680.55    13.5
         -1.7593 -6.6507-2353.76
$ Femap Coordinate System 618255 : Rectangular Coordinate System
CORD2R    618255  618000 -1.7593  6.6507    13.5-1675.061679.955    13.5
         -1.7593  6.65072379.908
$ Femap Coordinate System 618256 : Rectangular Coordinate System
CORD2R    618256  618000 -1.7593 -6.6507      0.-1675.64-1680.538.527-14
         -1.7593 -6.6507-2367.22
$ Femap Coordinate System 618257 : Rectangular Coordinate System
CORD2R    618257  618000 -1.7593  6.6507      0.-1675.041679.9232.842-13
         -1.7593  6.65072366.369
$ Femap Coordinate System 618258 : Rectangular Coordinate System
CORD2R    618258  618000 -1.7593  6.6507   -13.5-1675.061679.955   -13.5
         -1.7593  6.65072352.908
$ Femap Coordinate System 618259 : Rectangular Coordinate System
CORD2R    618259  618000 -1.7593 -6.6507   -13.5-1675.66-1680.55   -13.5
         -1.7593 -6.6507-2380.76
$ Femap Coordinate System 619000 : Shelf 3
CORD2R    619000  610000151.2737-33.663841.974312383.605-120.02541.97431
        151.2737-33.66382420.773
$ Femap Coordinate System 619101 : Rectangular Coordinate System
CORD2R    619101  619000 -2.18934.996-15 -1.6978-1682.71-1.93-12-1682.22
         -2.18932376.615 -1.6978
$ Femap Coordinate System 619102 : Rectangular Coordinate System
CORD2R    619102  619000 -1.7593  6.6507  -11.25-1682.31  1687.2  -11.25
         -1.7593  6.65072365.406
$ Femap Coordinate System 619103 : Rectangular Coordinate System
CORD2R    619103  619000 -1.7593 -6.6508  -11.25-1682.91 -1687.8  -11.25
         -1.7593 -6.6508-2388.75
$ Femap Coordinate System 619104 : Rectangular Coordinate System
CORD2R    619104  619000 -1.7593      0.-20.8022-1682.657.958-131660.084
         -1.7593-2377.13-20.8022
$ Femap Coordinate System 620000 :   Upper S A Frame Struts; Cylindrical
CORD2C    620000  600100  18.096      0.-1.49-142368.202      0.-1.49-14
          18.0962350.106-1.49-14
$ Femap Coordinate System 624001 : Rectangular Coordinate System
CORD2R    624001         2346.46-7.87621 9.06023 2346.46794.6711 2214.04
        4692.951-7.87621 9.06023
$ Femap Coordinate System 627002 : LOX Feedline; Upper S Duct Tank Flange +Z
CORD2R    627002  600100638.88413.925-1524.24995638.8841-2970.9924.24995
        3609.8773.925-1524.24995
$ Femap Coordinate System 627402 : LOX Feedline; Upper S Duct Tank Flange -Z
CORD2R    627402  600100638.88413.925-15  -24.25638.88412970.993  -24.25
        3609.8773.925-15  -24.25
$ Femap Coordinate System 627901 : LOX Ventline; VRV Interface Flange
CORD2R    627901  600100 18.5706  51.196 43.5127 18.5706 -1471.71835.309
        588.91821789.4911520.936
$ Femap Coordinate System 640000 :   Upper S Horizontal Strut Cylindrical
CORD2C    640000  600100   530.7      0.      0. 3393.41      0.      0.
           530.7 2862.71      0.
$ Femap Coordinate System 640001 :   Upper S Horizontal Strut
CORD2R    640001  600100   530.7      0.      0.   530.7      0. 2862.71
         3393.41      0.      0.
$ Femap Coordinate System 642000 : Shelf 1A
CORD2R    642000  640000150.9366-123.089139.4997 3009.79 149.786139.4983
        150.9366 -123.093145.501
$ Femap Coordinate System 642154 : Rectangular Coordinate System
CORD2R    642154  642000 -1.7593 -8.1508  -.3254-2126.38-2132.77  -.3254
         -1.7593 -8.1508-3004.99
$ Femap Coordinate System 642157 : Rectangular Coordinate System
CORD2R    642157  642000 -1.7593  8.1508  -.3251 -2125.8 2132.19  -.3251
         -1.7593  8.15083003.521
$ Femap Coordinate System 642158 : Rectangular Coordinate System
CORD2R    642158  642000 -1.7593      0. 15.1507-2126.117.162-122139.498
         -1.7593-3004.28 15.1507
$ Femap Coordinate System 642159 : Rectangular Coordinate System
CORD2R    642159  642000 -1.7593      0.-15.1507-2126.11-1.28-11 -2139.5
         -1.75933004.283-15.1507
$ Femap Coordinate System 643000 : Shelf 1B
CORD2R    643000  640000150.9366136.3234181.11963051.305 49.1588181.1196
        150.9366136.32343228.689
$ Femap Coordinate System 643154 : Rectangular Coordinate System
CORD2R    643154  643000 -1.7593 -8.1508  -.3254-2155.77-2162.16  -.3254
         -1.7593 -8.1508-3046.55
$ Femap Coordinate System 643157 : Rectangular Coordinate System
CORD2R    643157  643000 -1.7593  8.1508  -.3251 -2155.22161.586  -.3251
         -1.7593  8.15083045.094
$ Femap Coordinate System 643158 : Rectangular Coordinate System
CORD2R    643158  643000 -1.75938.882-15 15.1507 -2155.5-9.09-132168.892
         -1.7593-3045.85 15.1507
$ Femap Coordinate System 643159 : Rectangular Coordinate System
CORD2R    643159  643000 -1.7593-8.88-15-15.1507 -2155.52.501-12-2168.89
         -1.7593 3045.85-15.1507
$ Femap Coordinate System 644000 : Shelf 2A
CORD2R    644000  640000150.6897-102.521138.49973008.766170.3498138.4997
        150.6897-102.521 3143.49
$ Femap Coordinate System 644282 : Rectangular Coordinate System
CORD2R    644282  644000 -1.7593-1.38-14 15.1507-2125.392.825-112138.786
         -1.7593-3003.27 15.1507
$ Femap Coordinate System 644283 : Rectangular Coordinate System
CORD2R    644283  644000 -1.75934.441-15-21.6507-2125.42-1.52-11-2145.31
         -1.75933003.311-21.6507
$ Femap Coordinate System 644284 : Rectangular Coordinate System
CORD2R    644284  644000 -1.7593 -6.6507    13.5-2125.63-2130.52    13.5
         -1.7593 -6.6507 -2990.1
$ Femap Coordinate System 644285 : Rectangular Coordinate System
CORD2R    644285  644000 -1.7593  6.6507    13.5-2125.162130.046    13.5
         -1.7593  6.65073016.437
$ Femap Coordinate System 644286 : Rectangular Coordinate System
CORD2R    644286  644000 -1.7593 -6.6507  -12.34-2125.62-2130.52  -12.34
         -1.7593 -6.6507-3015.94
$ Femap Coordinate System 644287 : Rectangular Coordinate System
CORD2R    644287  644000 -1.7593  6.6507   -12.8-2125.152130.048   -12.8
         -1.7593  6.65072990.134
$ Femap Coordinate System 644288 : Rectangular Coordinate System
CORD2R    644288  644000 -1.7593  6.6507   -13.5-2125.162130.046   -13.5
         -1.7593  6.65072989.437
$ Femap Coordinate System 644289 : Rectangular Coordinate System
CORD2R    644289  644000 -1.7593 -6.6507   -13.5-2125.63-2130.52   -13.5
         -1.7593 -6.6507 -3017.1
$ Femap Coordinate System 645000 : Shelf 2B
CORD2R    645000  640000150.6897 -58.235139.49973009.764-145.365139.4997
        150.6897 -58.2353145.489
$ Femap Coordinate System 645282 : Rectangular Coordinate System
CORD2R    645282  645000 -1.75937.994-15 15.1507 -2126.1-3.59-11 2139.49
         -1.7593-3004.27 15.1507
$ Femap Coordinate System 645283 : Rectangular Coordinate System
CORD2R    645283  645000 -1.7593-7.99-15-15.1507 -2126.12.797-11-2139.49
         -1.7593 3004.27-15.1507
$ Femap Coordinate System 645284 : Rectangular Coordinate System
CORD2R    645284  645000 -1.7593 -8.1508   -6.75-2126.37-2132.77   -6.75
         -1.7593 -8.1508-3011.41
$ Femap Coordinate System 645285 : Rectangular Coordinate System
CORD2R    645285  645000 -1.7593 -8.1508    6.75-2126.37-2132.77    6.75
         -1.7593 -8.1508-2997.91
$ Femap Coordinate System 645286 : Rectangular Coordinate System
CORD2R    645286  645000 -1.7593  8.1508    6.75 -2125.82132.186    6.75
         -1.7593  8.15083010.592
$ Femap Coordinate System 645287 : Rectangular Coordinate System
CORD2R    645287  645000 -1.7593  8.1508   -6.75 -2125.82132.186   -6.75
         -1.7593  8.15082997.092
$ Femap Coordinate System 645288 : Rectangular Coordinate System
CORD2R    645288  645000 -1.7593  8.1508   -6.75 -2125.82132.186   -6.75
         -1.7593  8.15082997.092
$ Femap Coordinate System 645289 : Rectangular Coordinate System
CORD2R    645289  645000 -1.7593  8.1508   -6.75 -2125.82132.186   -6.75
         -1.7593  8.15082997.092
$ Femap Coordinate System 646000 : Shelf 3
CORD2R    646000  640000150.9366  -80.75132.98473003.291-167.869132.9847
        150.9366  -80.753132.479
$ Femap Coordinate System 646154 : Rectangular Coordinate System
CORD2R    646154  646000 -1.7593 -8.1508   -6.75-2121.78-2128.17   -6.75
         -1.7593 -8.1508-3004.92
$ Femap Coordinate System 646155 : Rectangular Coordinate System
CORD2R    646155  646000 -1.7593 -8.1508    6.75-2121.78-2128.17    6.75
         -1.7593 -8.1508-2991.42
$ Femap Coordinate System 646156 : Rectangular Coordinate System
CORD2R    646156  646000 -1.7593  8.1508    6.75 -2121.22127.596    6.75
         -1.7593  8.15083004.096
$ Femap Coordinate System 646157 : Rectangular Coordinate System
CORD2R    646157  646000 -1.7593  8.1508   -6.75 -2121.22127.596   -6.75
         -1.7593  8.15082990.596
$ Femap Coordinate System 646158 : Rectangular Coordinate System
CORD2R    646158  646000 -1.75931.465-14 15.1507-2121.51-8.01-122134.897
         -1.7593-2997.78 15.1507
$ Femap Coordinate System 646159 : Rectangular Coordinate System
CORD2R    646159  646000 -1.7593-1.47-14-15.1507-2121.517.901-12 -2134.9
         -1.75932997.776-15.1507
$ Femap Coordinate System 647000 : Shelf 4
CORD2R    647000  640000151.6957-33.4331139.49973009.865-120.544139.4997
        151.6957-33.43313145.539
$ Femap Coordinate System 647254 : Rectangular Coordinate System
CORD2R    647254  647000 -1.7593-2.66-15 15.1507-2126.132.842-122139.529
         -1.7593-3004.32 15.1507
$ Femap Coordinate System 647255 : Rectangular Coordinate System
CORD2R    647255  647000 -1.75932.665-15-15.1507-2126.13-6.59-12-2139.53
         -1.75933004.321-15.1507
$ Femap Coordinate System 647256 : Rectangular Coordinate System
CORD2R    647256  647000 -1.7593 -8.1508   -6.75-2126.41 -2132.8   -6.75
         -1.7593 -8.1508-3011.46
$ Femap Coordinate System 647257 : Rectangular Coordinate System
CORD2R    647257  647000 -1.7593 -8.1508    6.75-2126.41 -2132.8    6.75
         -1.7593 -8.1508-2997.96
$ Femap Coordinate System 647258 : Rectangular Coordinate System
CORD2R    647258  647000 -1.7593  8.1508    6.75-2125.832132.222    6.75
         -1.7593  8.1508 3010.64
$ Femap Coordinate System 647259 : Rectangular Coordinate System
CORD2R    647259  647000 -1.7593  8.1508   -6.75-2125.832132.222   -6.75
         -1.7593  8.1508 2997.14
$ Femap Coordinate System 647260 : Rectangular Coordinate System
CORD2R    647260  647000 -1.7593  8.1508   -6.75-2125.832132.222   -6.75
         -1.7593  8.1508 2997.14
$ Femap Coordinate System 647261 : Rectangular Coordinate System
CORD2R    647261  647000 -1.7593  8.1508   -6.75-2125.832132.222   -6.75
         -1.7593  8.1508 2997.14
$ Femap Coordinate System 648000 : Shelf 5
CORD2R    648000  640000150.9366-73.6403164.5847 3034.81 -160.79164.5847
        150.9366-73.6403 3195.64
$ Femap Coordinate System 648154 : Rectangular Coordinate System
CORD2R    648154  648000 -1.7593 -8.1508   -6.75 -2144.1-2150.49   -6.75
         -1.7593 -8.1508-3036.47
$ Femap Coordinate System 648155 : Rectangular Coordinate System
CORD2R    648155  648000 -1.7593 -8.1508    6.75 -2144.1-2150.49    6.75
         -1.7593 -8.1508-3022.97
$ Femap Coordinate System 648156 : Rectangular Coordinate System
CORD2R    648156  648000 -1.7593  8.1508    6.75-2143.522149.915    6.75
         -1.7593  8.1508 3035.66
$ Femap Coordinate System 648157 : Rectangular Coordinate System
CORD2R    648157  648000 -1.7593  8.1508   -6.75-2143.522149.915   -6.75
         -1.7593  8.1508 3022.16
$ Femap Coordinate System 648158 : Rectangular Coordinate System
CORD2R    648158  648000 -1.75936.217-15 15.1507-2143.82-2.91-112157.216
         -1.7593-3029.34 15.1507
$ Femap Coordinate System 648159 : Rectangular Coordinate System
CORD2R    648159  648000 -1.7593-6.22-15-15.1507-2143.823.536-11-2157.21
         -1.75933029.336-15.1507
$ Femap Coordinate System 649000 : Shelf 6
CORD2R    649000  640000150.9366-43.6766181.11963051.306-130.841181.1196
        150.9366-43.67663228.689
$ Femap Coordinate System 649153 : Rectangular Coordinate System
CORD2R    649153  649000 -1.7593 -8.1508   -6.75-2155.77-2162.16   -6.75
         -1.7593 -8.1508-3052.98
$ Femap Coordinate System 649154 : Rectangular Coordinate System
CORD2R    649154  649000 -1.7593 -8.1508    6.75-2155.77-2162.16    6.75
         -1.7593 -8.1508-3039.48
$ Femap Coordinate System 649155 : Rectangular Coordinate System
CORD2R    649155  649000 -1.7593  8.1508    6.75 -2155.22161.594    6.75
         -1.7593  8.15083052.177
$ Femap Coordinate System 649156 : Rectangular Coordinate System
CORD2R    649156  649000 -1.7593  8.1508   -6.75 -2155.22161.594   -6.75
         -1.7593  8.15083038.677
$ Femap Coordinate System 649157 : Rectangular Coordinate System
CORD2R    649157  649000 -1.7593      0. 15.1507 -2155.5-7.73-122168.892
         -1.7593-3045.85 15.1507
$ Femap Coordinate System 649158 : Rectangular Coordinate System
CORD2R    649158  649000 -1.7593      0.-15.1507 -2155.57.276-12-2168.89
         -1.7593 3045.85-15.1507
$ Femap Coordinate System 650000 :   Pivot Fitting Nodes; Cylindrical
CORD2C    650000  600100  793.14      0.      0. 3918.29      0.      0.
          793.14 3125.15      0.
$ Femap Coordinate System 660000 : LH2 Feedline Master Coordinate System
CORD2R    660000  600100   -8.89      0.      0.   -8.89      0. 2323.12
         2314.23      0.      0.
$ Femap Coordinate System 660111 : LH2 Feedline Prevalve Flange; Leg 101 +Z -Y
CORD2R    660111  6600002274.903-45.911926.781952274.903-2362.89-3945.15
        3988.503-3731.742176.867
$ Femap Coordinate System 660112 : LH2 Feedline Engine Flange; Leg 101 +Z -Y
CORD2R    660112  6600002371.359-101.82359.396882371.359-2467.99-3996.87
        7067.318-101.82359.39688
$ Femap Coordinate System 660113 : LH2 Feedline Strut; Leg 101 +Z -Y
CORD2R    660113  6600002335.669 -96.97666.494892351.191-3946.212693.526
        1893.6982517.0123899.231
$ Femap Coordinate System 660211 : LH2 Feedline Prevalve Flange; Leg 103 -Z -Y
CORD2R    660211  6600002274.903-45.9074-26.7898 2275.122270.577-3999.01
         3988.52-3732.04-2176.34
$ Femap Coordinate System 660212 : LH2 Feedline Engine Flange; Leg 103 -Z -Y
CORD2R    660212  6600002371.359-101.825-59.39382371.5792263.841-4115.95
        7067.318-101.934-59.2027
$ Femap Coordinate System 660213 : LH2 Feedline Strut; Leg 103 -Z -Y
CORD2R    660213  6600002335.669 -96.976-66.49492335.6693751.413 2561.82
         1893.662519.491-3897.54
$ Femap Coordinate System 660311 : LH2 Feedline Prevalve Flange; Leg 101 -Z +Y
CORD2R    660311  6600002274.90345.91191-26.78192274.9042362.892 3945.15
        3988.6073731.706-2176.85
$ Femap Coordinate System 660312 : LH2 Feedline Engine Flange; Leg 101 -Z +Y
CORD2R    660312  6600002371.359101.8228-59.39692371.3592467.9953996.865
        7067.318101.8228-59.3969
$ Femap Coordinate System 660313 : LH2 Feedline Strut; Leg 101 -Z +Y
CORD2R    660313  6600002335.66996.97603-66.49492335.6693944.997-2695.35
        1893.688-2520.03-3897.17
$ Femap Coordinate System 660411 : LH2 Feedline Prevalve Flange; Leg 103 +Z +Y
CORD2R    660411  6600002274.90345.9073526.789752274.891-2271.073998.723
        3988.4833731.7442176.881
$ Femap Coordinate System 660412 : LH2 Feedline Engine Flange; Leg 103 +Z +Y
CORD2R    660412  6600002371.359101.824659.393822371.581-2263.844115.951
        7067.318101.938559.20326
$ Femap Coordinate System 660413 : LH2 Feedline Strut; Leg 103 +Z +Y
CORD2R    660413  6600002335.66996.9760366.494892335.654-3751.39-2561.85
         1893.69-2519.523897.517
$ Femap Coordinate System 668000 : LH2 Fill Drain Master Coordinate System
CORD2R    668000  600100     -5.      0.      0.     -5.      0. 2327.01
         2322.01      0.      0.
$ Femap Coordinate System 668001 : LH2 Fill Drain Prevalve Flange and BSTRA
CORD2R    668001  6680002266.634 1.96-1142.243925264.879-3265.52-1162.03
        3978.835-3.558-34305.073
$ Femap Coordinate System 668002 : LH2 Fill Drain Middle BSTRA
CORD2R    668002  6680002312.65120.76366100.50873759.848-4267.671126.154
         5418.541778.4173067.173
$ Femap Coordinate System 668003 : LH2 Fill Drain Umbilical Flange and BSTRA
CORD2R    668003  6680002322.35134.53593144.40673772.956  -4264. 1172.47
        2322.3511116.5554668.546
$ Femap Coordinate System 668004 : LH2 Fill Drain Strut
CORD2R    668004  668000  2307.312.4232196.24614-794.995-1742.17-2867.44
        3187.198-4247.691697.316
$ Femap Coordinate System 669000 : LH2 Vent Master Coordinate System
CORD2R    669000  600100      0.      0.      0.      0.      0. 2332.01
         2332.01      0.      0.
$ Femap Coordinate System 669001 : VRV Flange and BSTRA
CORD2R    669001  600100686.3965-36.2226-56.5853686.39652506.559-1684.33
        1418.677-1615.36-2523.44
$ Femap Coordinate System 669002 : Middle BSTRA
CORD2R    669002  600100692.5197-58.0902-90.7458692.51972490.837-1722.42
        950.2773-1683.84-2630.41
$ Femap Coordinate System 669003 : IT Barrel Flange and BSTRA
CORD2R    669003  600100724.2839-85.3403-133.315724.28392492.172-1783.29
        724.2839-1735.32-2710.83
$ Femap Coordinate System 669004 : Strut
CORD2R    669004  600100693.3258-68.6234-95.2004950.6722-1531.31-2733.52
        689.9197-2716.671372.545
$ Femap Coordinate System 670000 : LOX Feedline Master Coordinate System
CORD2R    670000  600100      0.      0.      0.      0.      0. 2332.01
         2332.01      0.      0.
$ Femap Coordinate System 670101 : LOX Feedline; Upper S Duct Tank Flange +Z
CORD2R    670101  670000638.88413.925-1524.24995638.8841-2970.9924.24995
        3609.8773.925-1524.24995
$ Femap Coordinate System 670102 : LOX Feedline; Upper S Duct Sloped Section +Z
CORD2R    670102  670000684.46263.925-15139.2177684.4626-3019.68139.2177
        1000.1163.925-153142.358
$ Femap Coordinate System 670103 : LOX Feedline; Upper S Duct Downcomer Flange +Z
CORD2R    670103  670000805.13923.925-15180.9996805.1392-3142.37180.9996
        3947.5053.925-15180.9996
$ Femap Coordinate System 670104 : LOX Feedline; Upper S Duct Horizontal Strut +Z
CORD2R    670104  670000681.50349.064982111.0669996.72739.0491163110.119
        681.37033024.638111.0968
$ Femap Coordinate System 670105 : LOX Feedline; Upper S Duct Diagonal Strut +Z +Y
CORD2R    670105  670000 669.6436.959759 55.42931130.216-165.8623017.025
        -1306.652224.294492.1637
$ Femap Coordinate System 670106 : LOX Feedline; Upper S Duct Diagonal Strut +Z -Y
CORD2R    670106  670000 669.643-6.95976 55.4293209.0706-179.781-2906.17
        -1306.65 -2224.3492.1625
$ Femap Coordinate System 670201 : LOX Feedline; Downcomer +Z
CORD2R    670201  670000 2205.713.925-15179.6996 2205.714541.277179.6996
        6746.9873.925-15179.6996
$ Femap Coordinate System 670303 : LOX Feedline; Crossover Stub +Z
CORD2R    670303  6700002244.774-13.0735142.0387 6823.78-13.0735142.0387
        2244.774-4592.08141.9921
$ Femap Coordinate System 670412 : LOX Feedline; Crossover Outer Clevis CBUSH +Z
CORD2R    670412  670000 2244.78-93.4728 130.011 2244.783630.2232795.857
        2238.6952572.371-3593.68
$ Femap Coordinate System 670422 : LOX Feedline; Crossover Middle Clevis CBUSH +Z
CORD2R    670422  670000 2244.78-129.946 93.4261 2244.782535.6553817.294
         2238.963593.919-2572.17
$ Femap Coordinate System 670432 : LOX Feedline; Crossover Center Clevis CBUSH +Z
CORD2R    670432  670000 2244.78-158.027 25.8362 2244.78590.08834543.908
         2238.984360.041-722.278
$ Femap Coordinate System 670501 : LOX Feedline; Engine Inlet; Prevalve Flange; Leg 103 +Z +Y
CORD2R    670501  6700002261.24326.80894113.51282261.2421578.2464438.397
        3140.5314271.761-1409.25
$ Femap Coordinate System 670502 : LOX Feedline; Engine Inlet; Engine Flange; Leg 103 +Z +Y
CORD2R    670502  6700002367.46959.39688101.82282367.4691646.6944526.694
        7068.42659.39688101.8228
$ Femap Coordinate System 670511 : LOX Feedline; Engine Inlet; Prevalve Flange; Leg 101 +Z -Y
CORD2R    670511  6700002261.243-26.8089113.5128 2261.241524.613-4211.38
         3140.55-4271.76-1409.24
$ Femap Coordinate System 670512 : LOX Feedline; Engine Inlet; Engine Flange; Leg 101 +Z -Y
CORD2R    670512  6700002367.469-59.3969101.82282367.4691527.897-4323.05
        7068.426-59.3969101.8228
$ Femap Coordinate System 671001 : Rectangular Coordinate System
CORD2R    671001        3170.875 -11.809 173.7758.076215-11.9471459.2383
        3442.293970.57863181.437
$ Femap Coordinate System 671002 : Cylindrical Coordinate System
CORD2C    671002        3169.509-9.42-15179.69966344.108-9.42-15179.6996
        3169.509-9.42-153354.299
$ Femap Coordinate System 671003 : Cylindrical Coordinate System
CORD2C    671003         4465.931.704-10179.69968935.4741.704-10179.6996
         4465.931.704-104649.244
$ Femap Coordinate System 671004 : Cylindrical Coordinate System
CORD2C    671004        3169.509 -3.4-14179.69966344.108 -3.4-14179.6996
        3169.5093161.908463.2831
$ Femap Coordinate System 671005 : Rectangular Coordinate System
CORD2R    671005         3170.88 -11.809-173.7758.076175-11.9471-459.238
        2899.462-994.1982833.892
$ Femap Coordinate System 671006 : Cylindrical Coordinate System
CORD2C    671006         3169.51-9.42-15  -179.7 6344.11-9.42-15  -179.7
         3169.51-9.42-15  2994.9
$ Femap Coordinate System 671007 : Cylindrical Coordinate System
CORD2C    671007         4465.931.704-10  -179.78935.4741.704-10  -179.7
         4465.931.704-104289.844
$ Femap Coordinate System 671008 : Cylindrical Coordinate System
CORD2C    671008         3169.51 -3.4-14  -179.7 6344.11 -3.4-14  -179.7
         3169.51-3161.91103.8838
$ Femap Coordinate System 673000 : Rectangular Coordinate System
CORD2R    673000  670000 838.375 -11.809-173.775836.6438977.8378-3190.77
         4013.54-11.2694 -175.42
$ Femap Coordinate System 673001 : Rectangular Coordinate System
CORD2R    673001  670000 838.375 -11.809173.7751836.6438977.83453190.774
         4013.54-11.2694175.4201
$ Femap Coordinate System 674101 : LOX Feedline; Upper S Duct Tank Flange -Z
CORD2R    674101  670000638.88413.925-15  -24.25638.88412970.993  -24.25
        3609.8773.925-15  -24.25
$ Femap Coordinate System 674102 : LOX Feedline; Upper S Duct Sloped Section -Z
CORD2R    674102  670000 684.2683.925-15-137.366 684.2683019.404-137.366
        999.86143.925-15-3140.23
$ Femap Coordinate System 674103 : LOX Feedline; Upper S Duct Downcomer Flange -Z
CORD2R    674103        3137.1493.925-15   -181.3137.1493142.366   -181.
        6279.5153.925-15   -181.
$ Femap Coordinate System 674104 : LOX Feedline; Upper S Duct Horizontal Strut -Z
CORD2R    674104  670000681.5034-9.06498-111.067996.6965-9.04911-3110.12
        681.3703-3024.64-111.097
$ Femap Coordinate System 674105 : LOX Feedline; Upper S Duct Diagonal Strut +Z -Y
CORD2R    674105  670000 669.6436.959759-55.429321.831586.9597592876.018
        -1306.652224.294-492.164
$ Femap Coordinate System 674106 : LOX Feedline; Upper S Duct Diagonal Strut +Z -Y
CORD2R    674106  670000 669.643-6.95976-55.42931317.453-6.95976-2986.88
        -1306.65 -2224.3-492.163
$ Femap Coordinate System 674201 : LOX Feedline; Downcomer -Z
CORD2R    674201  6701011566.826 -203.95      0.1566.826 -203.954541.277
        6108.103 -203.95      0.
$ Femap Coordinate System 674303 : LOX Feedline; Crossover Stub -Z
CORD2R    674303  6700002244.774-13.0735-142.039-2334.23 -12.894-140.933
        2244.595-4592.08-141.958
$ Femap Coordinate System 674412 : LOX Feedline; Crossover Outer Clevis CBUSH -Z
CORD2R    674412  670000 2244.78-93.4728-130.011 2244.78-3817.172535.834
        2238.695 2572.373593.683
$ Femap Coordinate System 674422 : LOX Feedline; Crossover Middle Clevis CBUSH -Z
CORD2R    674422  670000 2244.78-129.946-93.4261 2244.78-2795.543630.447
         2238.963593.9242572.166
$ Femap Coordinate System 674432 : LOX Feedline; Crossover Center Clevis CBUSH -Z
CORD2R    674432  670000 2244.78-158.027-25.8362 2244.78-906.1394492.236
         2238.984360.041722.2752
$ Femap Coordinate System 674501 : LOX Feedline; Engine Inlet; Prevalve Flange; Leg 103 -Z +Y
CORD2R    674501  6700002261.24326.80894-113.5132261.245-1524.63 4211.37
        3140.5314271.7611409.252
$ Femap Coordinate System 674502 : LOX Inlet; Engine Flange; Leg 103 -Z -Y
CORD2R    674502  670000 2367.4759.39693-101.8232367.525 -1528.24322.942
        7068.42859.40891-101.877
$ Femap Coordinate System 674511 : LOX Feedline; Engine Inlet; Prevalve Flange; Leg 101 -Z -Y
CORD2R    674511  6700002261.243-26.8089-113.5132261.231-1578.25-4438.39
        3140.525-4271.761409.255
$ Femap Coordinate System 674512 : LOX Inlet; Engine Flange; Leg 101 -Z +Y
CORD2R    674512  6700002367.469-59.3969-101.8232367.468-1646.69 -4526.7
        7068.426-59.3988-101.823
$ Femap Coordinate System 678000 : LOX Fill-Drain; Master Coordinate System
CORD2R    678000  600100      0.      0.      0.      0.      0. 2332.01
         2332.01      0.      0.
$ Femap Coordinate System 678010 : LOX Fill-Drain; Prevalve Flange
CORD2R    678010  6700002262.229-3.89-13153.87472262.2294488.562-837.849
        6859.044-3.89-13153.8747
$ Femap Coordinate System 678011 : LOX Fill-Drain; Prevalve BSTRA
CORD2R    678011  6700002278.123 -2.1672144.06594948.3323655.561 1018.76
        4695.491 -849.65-3691.58
$ Femap Coordinate System 678012 : LOX Fill-Drain; Middle BSTRA
CORD2R    678012  6700002308.416-18.8706121.44124996.0513662.1881001.827
         6093.29-2632.78-503.747
$ Femap Coordinate System 678013 : LOX Fill-Drain; Umbilical Flange & BSTRA
CORD2R    678013  6700002322.351-34.5359144.40675018.2053658.3541027.617
        2322.347-1117.714673.408
$ Femap Coordinate System 678014 : LOX Fill-Drain; Strut
CORD2R    678014  6700002302.144-20.2411122.82016571.831-1646.56-661.871
        757.9234  -4353.700.2615
$ Femap Coordinate System 679000 : LOX Vent Master Coordinate System
CORD2R    679000  600100      0.      0.      0.      0.      0. 2332.01
         2332.01      0.      0.
$ Femap Coordinate System 679001 : VRV Flange and BSTRA
CORD2R    679001  600100 18.5723 51.193943.5109118.57463 -1471.7 1835.31
        588.91231789.4941520.934
$ Femap Coordinate System 679002 : Middle BSTRA
CORD2R    679002  60010025.1000785.7055372.84316 25.1024-1442.531870.929
        226.09181877.2581595.526
$ Femap Coordinate System 679003 : FS Barrel Flange and BSTRA
CORD2R    679003  60010056.45922124.6768105.965756.46159-1425.761930.166
        56.459221948.8771656.402
$ Femap Coordinate System 679004 : Strut
CORD2R    679004  60010025.2595192.2334272.15808201.5431 1746.31 1746.49
        30.676521770.966-1586.84
$ Femap Coordinate System 680000 :   Crossover Cylindrical Coordinate System
CORD2C    680000  600100 2145.85      0.      0. 6623.71      0.      0.
         2145.85 4477.86      0.
$ Femap Coordinate System 685000 :  ; Engine Inlet Support Stiffnesses
CORD2R    685000  680000      0.      0.226.8803 4704.74     90.226.8803
              0.      0.4931.621
$ Femap Coordinate System 685001 : Rectangular Coordinate System
CORD2R    685001  680000    114.   -135.226.88034592.121     45.226.8803
            114.   -135.4933.002
$ Femap Coordinate System 685002 : Cylindrical Coordinate System
CORD2C    685002  680000    114.   -135.226.8803    114.   -135.4933.002
        4592.121     45.226.8803
$ Femap Coordinate System 685006 : Rectangular Coordinate System
CORD2R    685006         3001.18      0. 35.9872 3001.183001.396 35.9872
         4828.92      0. 2416.69
$ Femap Coordinate System 685007 : Rectangular Coordinate System
CORD2R    685007         3004.11      0. 40.6303 3004.113004.385 40.6303
        4367.159      0.2718.022
$ Femap Coordinate System 685008 : Rectangular Coordinate System
CORD2R    685008         3006.14      0. 45.7296 3006.143006.488 45.7296
        3858.678      0.2928.809
$ Femap Coordinate System 685009 : Rectangular Coordinate System
CORD2R    685009         3007.21      0. 51.1142 3007.213007.644 51.1142
          3462.5      0.3024.099
$ Femap Coordinate System 685010 : Rectangular Coordinate System
CORD2R    685010         3007.46      0. 53.4251 3007.463007.934 53.4251
        3321.117      0.3044.961
$ Femap Coordinate System 685011 : Rectangular Coordinate System
CORD2R    685011          3007.6      0. 54.8042  3007.63008.099 54.8042
        3317.978      0.3046.848
$ Femap Coordinate System 685012 : Rectangular Coordinate System
CORD2R    685012         3018.04      0. 154.136 3018.043021.973 154.136
        3472.126      0.3141.799
$ Femap Coordinate System 685013 : Rectangular Coordinate System
CORD2R    685013         3019.11      0.  159.52 3019.113023.321  159.52
        3878.934      0.3057.998
$ Femap Coordinate System 685014 : Rectangular Coordinate System
CORD2R    685014         3021.15      0. 164.619 3021.153025.632 164.619
        4396.028      0.2859.829
$ Femap Coordinate System 685015 : Rectangular Coordinate System
CORD2R    685015         3024.08      0. 169.263 3024.083028.813 169.263
        4866.877      0. 2572.97
$ Femap Coordinate System 685016 : Rectangular Coordinate System
CORD2R    685016          3027.8      0. 173.294  3027.83032.755 173.294
        5280.826      0.2203.437
$ Femap Coordinate System 685017 : Rectangular Coordinate System
CORD2R    685017          3032.2      0. 176.579  3032.23037.337 176.579
        5622.444      0.1762.785
$ Femap Coordinate System 685018 : Rectangular Coordinate System
CORD2R    685018         3037.13      0. 179.007 3037.133042.401 179.007
        5877.656      0.1268.783
$ Femap Coordinate System 685019 : Rectangular Coordinate System
CORD2R    685019         3042.41      0. 180.497 3042.413047.759 180.497
        6039.072      0.736.2425
$ Femap Coordinate System 685020 : Rectangular Coordinate System
CORD2R    685020         4532.72      0.   179.7 4532.724536.281   179.7
        9066.552      0.30.66117
$ Femap Coordinate System 685021 : Rectangular Coordinate System
CORD2R    685021         4536.64      0. 179.442 4536.644540.187 179.442
        9037.891      0.-413.888
$ Femap Coordinate System 685022 : Rectangular Coordinate System
CORD2R    685022         4540.49      0. 178.676 4540.494544.004 178.676
        8929.545      0.-997.833
$ Femap Coordinate System 685023 : Rectangular Coordinate System
CORD2R    685023          4544.2      0. 177.416  4544.24547.662 177.416
        8745.534      0.-1563.28
$ Femap Coordinate System 685024 : Rectangular Coordinate System
CORD2R    685024         4547.72      0.  175.68 4547.724551.112  175.68
        8488.888      0.-2100.24
$ Femap Coordinate System 685025 : Rectangular Coordinate System
CORD2R    685025         4550.98      0. 173.501 4550.984554.286 173.501
$ ... 100 like lines cut
$ Femap Coordinate System 685102 : Cylindrical Coordinate System
CORD2C    685102  680000    114.    135.226.8803    114.    135.4933.002
        4820.121    135.226.8803
$ Femap Coordinate System 685150 : Rectangular Coordinate System
CORD2R    685150  685000 35.9507-80.6102 80.6102 35.95074661.451 80.6102
        4778.012-80.6102 80.6102
$ Femap Coordinate System 685201 : Rectangular Coordinate System
CORD2R    685201  680000    114.     45.226.88034592.121   -135.226.8803
            114.     45.4933.002
$ Femap Coordinate System 685202 : Cylindrical Coordinate System
CORD2C    685202  680000    114.     45.226.8803    114.     45.4933.002
        4592.121   -135.226.8803
$ Femap Coordinate System 685250 : Rectangular Coordinate System
CORD2R    685250  685000 35.9507 80.6102 80.6102 35.9507 80.61024822.672
        4778.012 80.6102 80.6102
$ Femap Coordinate System 685301 : Rectangular Coordinate System
CORD2R    685301  680000    114.    -45.226.88034820.121    -45.226.8803
            114.    -45.4933.002
$ Femap Coordinate System 685302 : Cylindrical Coordinate System
CORD2C    685302  680000    114.    -45.226.8803    114.    -45.4933.002
        4820.121    -45.226.8803
$ Femap Coordinate System 685350 : Rectangular Coordinate System
CORD2R    685350  685000 35.9507 80.6102-80.6102 35.9507-4661.45-80.6102
        4778.012 80.6102-80.6102
$ Femap Coordinate System 686001 : Rectangular Coordinate System
CORD2R    686001         2977.38      0.  -24.25 2977.38-2977.48  -24.25
        5951.726      0.-160.803
$ Femap Coordinate System 686002 : Rectangular Coordinate System
CORD2R    686002         2982.84      0.-24.7524 2982.84-2982.94-24.7524
        5915.876      0.-568.116
$ Femap Coordinate System 686003 : Rectangular Coordinate System
CORD2R    686003         2988.13      0.-26.2427 2988.13-2988.25-26.2427
        5777.883      0.-1097.17
$ Femap Coordinate System 686004 : Rectangular Coordinate System
CORD2R    686004         2993.05      0.-28.6709 2993.05-2993.19-28.6709
           5545.      0.-1592.87
$ Femap Coordinate System 686005 : Rectangular Coordinate System
CORD2R    686005         2997.45      0.-31.9558 2997.45-2997.62-31.9558
         5225.67      0.-2037.14
$ Femap Coordinate System 686006 : Rectangular Coordinate System
CORD2R    686006         3001.18      0.-35.9873 3001.18 -3001.4-35.9873
         4828.92      0.-2416.69
$ Femap Coordinate System 686007 : Rectangular Coordinate System
CORD2R    686007         3004.11      0.-40.6304 3004.11-3004.38-40.6304
        4367.166      0.-2718.02
$ Femap Coordinate System 686008 : Rectangular Coordinate System
CORD2R    686008         3006.14      0.-45.7296 3006.14-3006.49-45.7296
        3858.686      0.-2928.81
$ Femap Coordinate System 686009 : Rectangular Coordinate System
CORD2R    686009         3007.21      0.-51.1142 3007.21-3007.64-51.1142
        3462.493      0. -3024.1
$ Femap Coordinate System 686010 : Rectangular Coordinate System
CORD2R    686010         3007.46      0.-53.4252 3007.46-3007.93-53.4252
         3321.11      0.-3044.96
$ Femap Coordinate System 686011 : Rectangular Coordinate System
CORD2R    686011          3007.6      0.-54.8043  3007.6 -3008.1-54.8043
        3314.705      0.-3047.19
$ Femap Coordinate System 686012 : Rectangular Coordinate System
CORD2R    686012         3018.04      0.-154.136 3018.04-3021.97-154.136
        3472.126      0. -3141.8
$ Femap Coordinate System 686013 : Rectangular Coordinate System
CORD2R    686013         3019.11      0. -159.52 3019.11-3023.32 -159.52
        3878.933      0.  -3058.
$ Femap Coordinate System 686014 : Rectangular Coordinate System
CORD2R    686014         3021.15      0.-164.619 3021.15-3025.63-164.619
        4396.028      0.-2859.83
$ Femap Coordinate System 686015 : Rectangular Coordinate System
CORD2R    686015         3024.08      0.-169.263 3024.08-3028.81-169.263
        4866.877      0.-2572.97
$ Femap Coordinate System 686016 : Rectangular Coordinate System
CORD2R    686016          3027.8      0.-173.294  3027.8-3032.76-173.294
        5280.823      0.-2203.44
$ Femap Coordinate System 686017 : Rectangular Coordinate System
CORD2R    686017          3032.2      0.-176.579  3032.2-3037.34-176.579
        5622.442      0.-1762.79
$ Femap Coordinate System 686018 : Rectangular Coordinate System
CORD2R    686018         3037.13      0.-179.007 3037.13 -3042.4-179.007
        5877.658      0.-1268.78
$ Femap Coordinate System 686019 : Rectangular Coordinate System
CORD2R    686019         3042.41      0.-180.497 3042.41-3047.76-180.497
$ ... 301 like lines cut
$ Femap Coordinate System 4080000 : mat1.35
CORD2R   4080000         4631.74-52.9198 145.397-1.78363 -76.369 228.253
        4638.0494301.839 1730.64
$ Femap Coordinate System 4080001 : Rectangular Coordinate System
CORD2R   4080001         4631.74 52.9198 145.3979263.81912.914816.819095
         4641.56-4301.791730.752
$ Femap Coordinate System 4080002 : Rectangular Coordinate System
CORD2R   4080002         4667.81 35.4285 148.139-2.48006 39.1632 142.911
        4672.026-1051.03-4394.02
$ Femap Coordinate System 4080003 : Rectangular Coordinate System
CORD2R   4080003         4631.75 -12.882    156.-2.64424 -12.882    156.
         4631.754621.512    156.
$ Femap Coordinate System 4080004 : Rectangular Coordinate System
CORD2R   4080004         4631.75  12.882    156.9266.144  12.882    156.
         4631.75-4621.51    156.
$ Femap Coordinate System 4080005 : Rectangular Coordinate System
CORD2R   4080005         4667.81 13.2522 139.917 4667.81-3590.83-2829.73
         4667.81-2956.393743.998
$ Femap Coordinate System 7685001 : Rectangular Coordinate System
CORD2R   7685001         2977.38      0.24.25001 2977.382977.47924.25001
        5951.727      0.160.7763
$ Femap Coordinate System 7685002 : Rectangular Coordinate System
CORD2R   7685002         2982.84      0. 24.7523 2982.842982.943 24.7523
        5915.881      0.568.0898
$ Femap Coordinate System 7685003 : Rectangular Coordinate System
CORD2R   7685003         2988.13      0. 26.2426 2988.132988.245 26.2426
        5777.882      0.1097.174
$ Femap Coordinate System 7685004 : Rectangular Coordinate System
CORD2R   7685004         2993.05      0. 28.6708 2993.052993.187 28.6708
           5545.      0.1592.871
$ Femap Coordinate System 7685005 : Rectangular Coordinate System
CORD2R   7685005         2997.45      0. 31.9557 2997.45 2997.62 31.9557
        5225.669      0.2037.141
$ Femap Coordinate System 8685003 : Rectangular Coordinate System
CORD2R   8685003         2986.61      0.  25.706 2986.612986.721  25.706
         5834.76      0.924.8949
$ Femap Coordinate System 9685050 : Rectangular Coordinate System
CORD2R   9685050         4592.36-44.8679 107.0354587.4681504.728-4217.54
        2951.6853993.9071556.077
$ Femap Coordinate System 71000026 : Rectangular Coordinate System
CORD2R  7100002671001000      0.      0.      0.4705.264      0.      0.
              0.-3327.12-3327.12
$ Femap Coordinate System 71000073 : Rectangular Coordinate System
CORD2R  7100007371001000   9.107      0.      0.   9.107-3320.693320.683
        4705.267      0.      0.
$ Femap Coordinate System 71000153 : Rectangular Coordinate System
CORD2R  7100015371001000 -40.107 19.9727 19.97274632.554-562.709-562.709
        -864.143 -3284.1 -3284.1
$ Femap Coordinate System 71000373 : Rectangular Coordinate System
CORD2R  7100037371001000   9.107      0.      0.   9.107-3320.693320.683
        4705.267      0.      0.
$ Femap Coordinate System 71000630 : Rectangular Coordinate System
CORD2R  7100063071001000-47.7323-21.7456-21.7457 4638.09526.7309562.2455
        -23.01133342.793-3380.03
$ Femap Coordinate System 71001000 : Rectangular Coordinate System
CORD2R  71001000        4703.883-80.6097 80.61024703.883-80.6097-4624.65
         -1.3812-80.6097 80.6102
$ Femap Coordinate System 71001001 : Rectangular Coordinate System
CORD2R  71001001        4694.416-80.6097 80.61024694.416-80.6097-4615.19
        -1.38399-80.6097 80.6102
$ Femap Coordinate System 71150001 : ECU Local CS 1
CORD2R  7115000171000073-55.015711.2392616.25986-27.46021304.9684587.567
        15.298054582.012-1277.74
$ Femap Coordinate System 71150002 : ECU Local Cs 2
CORD2R  7115000271000073-55.1936-.37491519.54796-27.63571293.5664591.269
          15.1274570.811-1274.67
$ Femap Coordinate System 71150003 : ECU Local CS 3
CORD2R  7115000371000073-30.78977.56056213.60839-3.374381294.7624561.668
          38.6944555.096-1273.86
$ Femap Coordinate System 71150004 : ECU Local CS 6
CORD2R  7115000471000073-30.8951 .67976315.55644-3.478271287.9934563.866
        38.592644548.465-1272.03
$ Femap Coordinate System 71600100 : Rectangular Coordinate System
CORD2R  71600100        2331.685 -161.22161.22032331.685-2504.03161.2203
        4674.491 -161.22161.2203
$ Femap Coordinate System 71680000 : Cylindrical Coordinate System
CORD2C  7168000071600100 2145.85      0.      0.6629.186      0.      0.
         2145.854483.336      0.
$ Femap Coordinate System 71685000 : Rectangular Coordinate System
CORD2R  7168500071680000      0.      0.226.88034709.937     90.226.8803
              0.      0.4936.817
$ Femap Coordinate System 71685001 : Rectangular Coordinate System
CORD2R  7168500171680000    114.   -135.226.88034591.796     45.226.8803
            114.   -135.4932.677
$ Femap Coordinate System 71685002 : Cylindrical Coordinate System
CORD2C  7168500271680000    114.   -135.226.8803    114.   -135.4932.677
        4591.796     45.226.8803
$ Femap Coordinate System 71700001 : Cylindrical Coordinate System
CORD2C  7170000171600100 2145.85      0.      0.6629.186      0.      0.
         2145.854483.336      0.
$ Femap Coordinate System 72000026 : Rectangular Coordinate System
CORD2R  7200002672001000      0.      0.      0.4705.264      0.      0.
              0.-3327.12-3327.12
$ Femap Coordinate System 72000073 : Rectangular Coordinate System
CORD2R  7200007372001000   9.107      0.      0.   9.107-3320.693320.684
        4705.267      0.      0.
$ Femap Coordinate System 72000153 : Rectangular Coordinate System
CORD2R  7200015372001000 -40.107 19.9727 19.9727 4633.89-562.875-562.875
        -864.378-3285.04-3285.04
$ Femap Coordinate System 72000373 : Rectangular Coordinate System
CORD2R  7200037372001000   9.107      0.      0.   9.107-3320.693320.684
        4705.267      0.      0.
$ Femap Coordinate System 72000630 : Rectangular Coordinate System
CORD2R  7200063072001000-47.7323-21.7456-21.74574636.636526.5607562.0643
        -23.02053341.755-3378.98
$ Femap Coordinate System 72001000 : Rectangular Coordinate System
CORD2R  72001000        4703.883-80.6102-80.61024703.883-4785.87-80.6102
        -1.38121-80.6102-80.6102
$ Femap Coordinate System 72001001 : Rectangular Coordinate System
CORD2R  72001001        4694.416-80.6102-80.61024694.416-4776.41-80.6102
        -1.38399-80.6102-80.6102
$ Femap Coordinate System 72150001 : ECU Local CS 1
CORD2R  7215000172000073-55.015711.2392616.25986-27.45711305.1154588.086
        15.306034582.531-1277.89
$ Femap Coordinate System 72150002 : ECU Local Cs 2
CORD2R  7215000272000073-55.1936-.37491519.54796-27.63581293.5614591.252
        15.126694570.794-1274.66
$ Femap Coordinate System 72150003 : ECU Local CS 3
CORD2R  7215000372000073-30.78977.56056213.60839-3.372271294.8614562.019
         38.69944555.446-1273.96
$ Femap Coordinate System 72150004 : ECU Local CS 6
CORD2R  7215000472000073-30.8951 .67976315.55644-3.478081288.0014563.898
        38.593114548.497-1272.04
$ Femap Coordinate System 72600100 : Rectangular Coordinate System
CORD2R  72600100        2331.685      0.      0.2331.685      0.2331.685
         4663.37      0.      0.
$ Femap Coordinate System 72680000 : Cylindrical Coordinate System
CORD2C  7268000072600100 2145.85      0.      0.6623.385      0.      0.
         2145.854477.535      0.
$ Femap Coordinate System 72685000 : Rectangular Coordinate System
CORD2R  7268500072680000      0.      0.226.88034704.415     90.226.8803
              0.      0.4931.296
$ Femap Coordinate System 72685001 : Rectangular Coordinate System
CORD2R  7268500172680000    114.   -135.226.88034591.796     45.226.8803
            114.   -135.4932.677
$ Femap Coordinate System 72685002 : Cylindrical Coordinate System
CORD2C  7268500272680000    114.   -135.226.8803    114.   -135.4932.677
        4591.796     45.226.8803
$ Femap Coordinate System 72700001 : Cylindrical Coordinate System
CORD2C  7270000172600100 2145.85      0.      0.6623.385      0.      0.
         2145.854477.535      0.
$ Femap Coordinate System 73000026 : Rectangular Coordinate System
CORD2R  7300002673001000      0.      0.      0.4705.264      0.      0.
              0.-3327.12-3327.12
$ Femap Coordinate System 73000073 : Rectangular Coordinate System
CORD2R  7300007373001000   9.107      0.      0.   9.107-3320.693320.684
        4705.267      0.      0.
$ Femap Coordinate System 73000153 : Rectangular Coordinate System
CORD2R  7300015373001000 -40.107 19.9727 19.97274632.554-562.709-562.709
        -864.143 -3284.1 -3284.1
$ Femap Coordinate System 73000373 : Rectangular Coordinate System
CORD2R  7300037373001000   9.107      0.      0.   9.107-3320.693320.684
        4705.267      0.      0.
$ Femap Coordinate System 73000630 : Rectangular Coordinate System
CORD2R  7300063073001000-47.7323-21.7456-21.7457 4638.09526.7309562.2455
        -23.01133342.793-3380.03
$ Femap Coordinate System 73001000 : Rectangular Coordinate System
CORD2R  73001000        4703.88380.61015-80.61044703.88380.610154624.654
        -1.3812180.61015-80.6104
$ Femap Coordinate System 73001001 : Rectangular Coordinate System
CORD2R  73001001        4694.41680.61015-80.61044694.41680.61015 4615.19
          -1.38480.61015-80.6104
$ Femap Coordinate System 73150001 : ECU Local CS 1
CORD2R  7315000173000073-55.015711.2392616.25986-27.46021304.9684587.567
        15.298054582.012-1277.74
$ Femap Coordinate System 73150002 : ECU Local Cs 2
CORD2R  7315000273000073-55.1936-.37491519.54796-27.63571293.5664591.269
        15.126994570.811-1274.67
$ Femap Coordinate System 73150003 : ECU Local CS 3
CORD2R  7315000373000073-30.78977.56056213.60839-3.374381294.7624561.668
        38.694014555.096-1273.86
$ Femap Coordinate System 73150004 : ECU Local CS 6
CORD2R  7315000473000073-30.8951 .67976315.55644-3.478271287.9934563.866
        38.592644548.465-1272.03
$ Femap Coordinate System 73600100 : Rectangular Coordinate System
CORD2R  73600100        2331.685161.2203-161.2212331.6852504.026-161.221
        4674.491161.2203-161.221
$ Femap Coordinate System 73680000 : Cylindrical Coordinate System
CORD2C  7368000073600100 2145.85      0.      0.6629.186      0.      0.
         2145.854483.336      0.
$ Femap Coordinate System 73685000 : Rectangular Coordinate System
CORD2R  7368500073680000      0.      0.226.88034709.937     90.226.8803
              0.      0.4936.817
$ Femap Coordinate System 73685001 : Rectangular Coordinate System
CORD2R  7368500173680000    114.   -135.226.88034591.796     45.226.8803
            114.   -135.4932.677
$ Femap Coordinate System 73685002 : Cylindrical Coordinate System
CORD2C  7368500273680000    114.   -135.226.8803    114.   -135.4932.677
        4591.796     45.226.8803
$ Femap Coordinate System 73700001 : Cylindrical Coordinate System
CORD2C  7370000173600100 2145.85      0.      0.6629.186      0.      0.
         2145.854483.336      0.
$ Femap Coordinate System 74000026 : Rectangular Coordinate System
CORD2R  7400002674001000      0.      0.      0.4705.264      0.      0.
              0.-3327.12-3327.12
$ Femap Coordinate System 74000073 : Rectangular Coordinate System
CORD2R  7400007374001000   9.107      0.      0.   9.107-3320.693320.684
        4705.267      0.      0.
$ Femap Coordinate System 74000153 : Rectangular Coordinate System
CORD2R  7400015374001000 -40.107 19.9727 19.9727 4633.89-562.875-562.875
        -864.378-3285.04-3285.04
$ Femap Coordinate System 74000373 : Rectangular Coordinate System
CORD2R  7400037374001000   9.107      0.      0.   9.107-3320.693320.684
        4705.267      0.      0.
$ Femap Coordinate System 74000630 : Rectangular Coordinate System
CORD2R  7400063074001000-47.7323-21.7456-21.74574636.636526.5607562.0643
        -23.02073341.756-3378.98
$ Femap Coordinate System 74001000 : Rectangular Coordinate System
CORD2R  74001000        4703.883 80.6102 80.61024703.8834785.874 80.6102
        -1.38121 80.6102 80.6102
$ Femap Coordinate System 74001001 : Rectangular Coordinate System
CORD2R  74001001        4694.416 80.6102 80.61024694.416 4776.41 80.6102
        -1.38399 80.6102 80.6102
$ Femap Coordinate System 74150001 : ECU Local CS 1
CORD2R  7415000174000073-55.015711.2392616.25986-27.45711305.1154588.086
        15.306034582.531-1277.89
$ Femap Coordinate System 74150002 : ECU Local Cs 2
CORD2R  7415000274000073-55.1936-.37491519.54796-27.63581293.5614591.252
        15.126694570.794-1274.66
$ Femap Coordinate System 74150003 : ECU Local CS 3
CORD2R  7415000374000073-30.78977.56056213.60839-3.372271294.8614562.019
         38.69944555.446-1273.96
$ Femap Coordinate System 74150004 : ECU Local CS 6
CORD2R  7415000474000073-30.8951 .67976315.55644-3.478081288.0014563.898
        38.593114548.497-1272.04
$ Femap Coordinate System 74600100 : Rectangular Coordinate System
CORD2R  74600100        2331.685      0.      0.2331.685      0.-2331.68
         4663.37      0.      0.
$ Femap Coordinate System 74680000 : Cylindrical Coordinate System
CORD2C  7468000074600100 2145.85      0.      0.6623.385      0.      0.
         2145.854477.535      0.
$ Femap Coordinate System 74685000 : Rectangular Coordinate System
CORD2R  7468500074680000      0.      0.226.88034704.415     90.226.8803
              0.      0.4931.296
$ Femap Coordinate System 74685001 : Rectangular Coordinate System
CORD2R  7468500174680000    114.   -135.226.88034591.796     45.226.8803
            114.   -135.4932.677
$ Femap Coordinate System 74685002 : Cylindrical Coordinate System
CORD2C  7468500274680000    114.   -135.226.8803    114.   -135.4932.677
        4591.796     45.226.8803
$ Femap Coordinate System 74700001 : Cylindrical Coordinate System
CORD2C  7470000174600100 2145.85      0.      0.6623.385      0.      0.
         2145.854477.535      0.
ENDDATA
