$ Cantilever Plate Model for Mode Miner Testing
$ Simple 10x4 plate fixed at one end
SOL 103
CEND
TITLE = CANTILEVER PLATE MODAL ANALYSIS
SUBCASE 1
  METHOD = 1
  VECTOR(SORT1,REAL) = ALL
BEGIN BULK
$
$ EIGRL card for modal analysis - extract 10 modes
EIGRL,1,,,10
$
$ Material: Aluminum
MAT1,1,7.0E10,,0.33,2700.
$
$ Shell property: 0.01m thick
PSHELL,1,1,0.01,1,,1
$
$ Grid points - 11x5 grid (55 nodes)
$ Fixed end at X=0
GRID,1,,0.0,0.0,0.0
GRID,2,,0.0,0.1,0.0
GRID,3,,0.0,0.2,0.0
GRID,4,,0.0,0.3,0.0
GRID,5,,0.0,0.4,0.0
GRID,6,,0.1,0.0,0.0
GRID,7,,0.1,0.1,0.0
GRID,8,,0.1,0.2,0.0
GRID,9,,0.1,0.3,0.0
GRID,10,,0.1,0.4,0.0
GRID,11,,0.2,0.0,0.0
GRID,12,,0.2,0.1,0.0
GRID,13,,0.2,0.2,0.0
GRID,14,,0.2,0.3,0.0
GRID,15,,0.2,0.4,0.0
GRID,16,,0.3,0.0,0.0
GRID,17,,0.3,0.1,0.0
GRID,18,,0.3,0.2,0.0
GRID,19,,0.3,0.3,0.0
GRID,20,,0.3,0.4,0.0
$ ... 35 like lines cut
$
$ CQUAD4 elements - 10x4 = 40 elements
CQUAD4,1,1,1,6,7,2
CQUAD4,2,1,2,7,8,3
CQUAD4,3,1,3,8,9,4
CQUAD4,4,1,4,9,10,5
CQUAD4,5,1,6,11,12,7
CQUAD4,6,1,7,12,13,8
CQUAD4,7,1,8,13,14,9
CQUAD4,8,1,9,14,15,10
CQUAD4,9,1,11,16,17,12
CQUAD4,10,1,12,17,18,13
CQUAD4,11,1,13,18,19,14
CQUAD4,12,1,14,19,20,15
CQUAD4,13,1,16,21,22,17
CQUAD4,14,1,17,22,23,18
CQUAD4,15,1,18,23,24,19
CQUAD4,16,1,19,24,25,20
CQUAD4,17,1,21,26,27,22
CQUAD4,18,1,22,27,28,23
CQUAD4,19,1,23,28,29,24
CQUAD4,20,1,24,29,30,25
$ ... 20 like lines cut
$
$ Fixed boundary at X=0 (nodes 1-5)
SPC1,1,123456,1,2,3,4,5
$
ENDDATA

