$pyNastran: version=msc
$pyNastran: punch=True
$pyNastran: encoding=utf-8
$pyNastran: nnodes=2
$pyNastran: nelements=1
$NODES
GRID           1              0.      0.      0.
GRID           2             10.      0.      0.
$ELEMENTS
CBEAM          1       1       1       2      0.      1.      0.
                                              1.                      3.
$PROPERTIES
PBAR           1       1      1.      1.      1.      1.
$MATERIALS
MAT1           1    1.+7              .3      .1
